testing line
untrstin file
new line.
commit from MAKSI MAX

Maksi Mask
Add line
